 00 FF FF FF FF FF FF 00 52 62 88 88 00 88 88 88
 1C 15 01 03 80 A0 5A 78 0A 0D C9 A0 57 47 98 27
 12 48 4C 00 00 00 01 01 01 01 01 01 01 01 01 01
 01 01 01 01 01 01 01 1D 80 18 71 38 2D 40 58 2C
 45 00 80 38 74 00 00 1E 01 1D 80 18 71 38 2D 40
 58 2C 45 00 80 38 74 00 00 1E 00 00 00 FC 00 44
 43 44 5A 2D 48 32 43 20 4D 4F 44 0A 00 00 00 FD
 00 14 78 01 FF 10 00 0A 20 20 20 20 20 20 01 B9
 02 03 1A 71 47 A2 22 22 22 22 22 22 23 09 07 01
 83 01 00 00 65 03 0C 00 10 00 01 1D 80 18 71 38
 2D 40 58 2C 45 00 80 38 74 00 00 1E 01 1D 80 18
 71 38 2D 40 58 2C 45 00 80 38 74 00 00 1E 01 1D
 80 18 71 38 2D 40 58 2C 45 00 80 38 74 00 00 1E
 01 1D 80 18 71 38 2D 40 58 2C 45 00 80 38 74 00
 00 1E 00 00 00 00 00 00 00 00 00 00 00 00 00 00
 00 00 00 00 00 00 00 00 00 00 00 00 00 00 00 03
